
     RDKit          3D

 24 24  0  0  0  0  0  0  0  0999 V2000
   -1.9191   -1.6084   -0.4764 N   0  0  0  0  0  0  0  0  0  0  0  0
   -1.7509   -0.4516    0.4480 C   0  0  1  0  0  0  0  0  0  0  0  0
   -0.9574    0.6896   -0.2137 C   0  0  0  0  0  0  0  0  0  0  0  0
    0.5372    0.4569   -0.2147 C   0  0  0  0  0  0  0  0  0  0  0  0
    1.1307   -0.3865   -1.1646 C   0  0  0  0  0  0  0  0  0  0  0  0
    2.5099   -0.6073   -1.1571 C   0  0  0  0  0  0  0  0  0  0  0  0
    3.2973    0.0170   -0.1958 C   0  0  0  0  0  0  0  0  0  0  0  0
    4.6472   -0.1712   -0.1515 O   0  0  0  0  0  0  0  0  0  0  0  0
    2.7280    0.8539    0.7555 C   0  0  0  0  0  0  0  0  0  0  0  0
    1.3495    1.0729    0.7487 C   0  0  0  0  0  0  0  0  0  0  0  0
   -3.1208    0.0677    0.9129 C   0  0  0  0  0  0  0  0  0  0  0  0
   -3.3598    1.1495    1.4248 O   0  0  0  0  0  0  0  0  0  0  0  0
   -4.1212   -0.8294    0.7467 O   0  0  0  0  0  0  0  0  0  0  0  0
   -2.4497   -1.2949   -1.2898 H   0  0  0  0  0  0  0  0  0  0  0  0
   -2.5471   -2.2698   -0.0106 H   0  0  0  0  0  0  0  0  0  0  0  0
   -1.2374   -0.8123    1.3473 H   0  0  0  0  0  0  0  0  0  0  0  0
   -1.1550    1.6415    0.2965 H   0  0  0  0  0  0  0  0  0  0  0  0
   -1.2991    0.8531   -1.2450 H   0  0  0  0  0  0  0  0  0  0  0  0
    0.5163   -0.8857   -1.9110 H   0  0  0  0  0  0  0  0  0  0  0  0
    2.9440   -1.2674   -1.9009 H   0  0  0  0  0  0  0  0  0  0  0  0
    4.8939   -0.7826   -0.8644 H   0  0  0  0  0  0  0  0  0  0  0  0
    3.3548    1.3338    1.5014 H   0  0  0  0  0  0  0  0  0  0  0  0
    0.9161    1.7289    1.5002 H   0  0  0  0  0  0  0  0  0  0  0  0
   -4.9076   -0.3721    1.1135 H   0  0  0  0  0  0  0  0  0  0  0  0
  1  2  1  0
  2  3  1  0
  3  4  1  0
  4  5  1  0
  5  6  2  0
  6  7  1  0
  7  8  1  0
  7  9  2  0
  9 10  1  0
  2 11  1  0
 11 12  2  0
 11 13  1  0
 10  4  2  0
  1 14  1  0
  1 15  1  0
  2 16  1  1
  3 17  1  0
  3 18  1  0
  5 19  1  0
  6 20  1  0
  8 21  1  0
  9 22  1  0
 10 23  1  0
 13 24  1  0
M  END
$$$$
